
.model pch pmos level=54
***************
* adja
+toxe    =3.2e-009         toxp  = 2.9820425e-009      epsrox  = 3.9
+lint    = -3.592989e-008   llong = 1e-005              lw      = 0